// Generated for: spectre
// Design Netlist Generated on: Mar 11 15:52:53 2024
// Design library name: lab2024
// Design cell name: tb_invParam
// Design view name: schematic
simulator lang=spectre
global 0 vdd!
