// Generated for: spectre
// Generated on: Jan 31 14:22:22 2024
// Design library name: lab2024
// Design cell name: tb_inv
// Design view name: schematic
simulator lang=spectre
global 0 vdd!
