// Generated for: spectre
// Generated on: Mar  1 13:42:31 2024
// Design library name: lab2024
// Design cell name: tb_invParam
// Design view name: schematic
simulator lang=spectre
global 0 vdd!
