// Generated for: spectre
// Generated on: Apr 15 16:02:13 2024
// Design library name: lab2024
// Design cell name: tb_ycircuit
// Design view name: schematic
simulator lang=spectre
global 0 vdd!
