// Generated for: spectre
// Design Netlist Generated on: Mar  8 13:50:26 2024
// Design library name: lab2024
// Design cell name: tb_invParam
// Design view name: schematic
simulator lang=spectre
global 0 vdd!
