// Generated for: spectre
// Generated on: Apr 22 14:22:46 2024
// Design library name: lab2024
// Design cell name: tb_xort
// Design view name: schematic
simulator lang=spectre
global 0 vdd!
